data/p13uhs0_1247/DSSfiles/Lines.dss
New Line.sb10_p13uhs0_1247_311 Units=km Length=0.001511744 bus1=sb10_p13uhs0_1247_bus_10_6.1.2.3 bus2=p13udt13219-p13uhs0_1247x.1.2.3 switch=n enabled=y phases=3 Linecode=3P_OH_Code_3_1

New Line.sb10_p13uhs0_1247_313 Units=km Length=0.001511744 bus1=sb10_p13uhs0_1247_bus_10_7.1.2.3 bus2=p13udt15681-p13uhs0_1247x.1.2.3 switch=n enabled=y phases=3 Linecode=3P_OH_Code_3

New Line.sb10_p13uhs0_1247_310 Units=km Length=0.002267616 bus1=sb10_p13uhs0_1247_bus_10_4.1.2.3 bus2=p13udt13213-p13uhs0_1247x.1.2.3 switch=n enabled=y phases=3 Linecode=3P_OH_Code_3_1

New Line.sb10_p13uhs0_1247_312 Units=km Length=0.002267616 bus1=sb10_p13uhs0_1247_bus_10_5.1.2.3 bus2=p13udt18158-p13uhs0_1247x.1.2.3 switch=n enabled=y phases=3 Linecode=3P_OH_Code_3_1

New Line.sb10_p13uhs0_1247_354 Units=km Length=0.001 bus1=sb10_p13uhs0_1247_node_10_7.1.2.3 bus2=sb10_p13uhs0_1247_bus_10_1.1.2.3 switch=y enabled=y phases=3 Linecode=BREAKER_13KV_3_1

New Line.sb10_p13uhs0_1247_308 Units=km Length=0.001 bus1=sb10_p13uhs0_1247_bus_10_6.1.2.3 bus2=sb10_p13uhs0_1247_bus_10_7.1.2.3 switch=y enabled=n phases=3 Linecode=BREAKER_13KV_3

New Line.sb10_p13uhs0_1247_307 Units=km Length=0.001 bus1=sb10_p13uhs0_1247_bus_10_3.1.2.3 bus2=sb10_p13uhs0_1247_bus_10_7.1.2.3 switch=y enabled=y phases=3 Linecode=BREAKER_13KV_3

New Line.sb10_p13uhs0_1247_305 Units=km Length=0.001 bus1=sb10_p13uhs0_1247_bus_10_2.1.2.3 bus2=sb10_p13uhs0_1247_bus_10_6.1.2.3 switch=y enabled=y phases=3 Linecode=BREAKER_13KV_3

New Line.sb10_p13uhs0_1247_303 Units=km Length=0.001 bus1=sb10_p13uhs0_1247_bus_10_1.1.2.3 bus2=sb10_p13uhs0_1247_bus_10_3.1.2.3 switch=y enabled=y phases=3 Linecode=DISCONNECT_SWITCH_13KV_3

New Line.sb10_p13uhs0_1247_347 Units=km Length=0.001 bus1=sb10_p13uhs0_1247_node_10_6.1.2.3 bus2=sb10_p13uhs0_1247_node_10_5.1.2.3 switch=y enabled=y phases=3 Linecode=BREAKER_69KV_3

New Line.sb10_p13uhs0_1247_306 Units=km Length=0.001 bus1=sb10_p13uhs0_1247_bus_10_3.1.2.3 bus2=sb10_p13uhs0_1247_bus_10_5.1.2.3 switch=y enabled=y phases=3 Linecode=BREAKER_13KV_3

New Line.sb10_p13uhs0_1247_309 Units=km Length=0.001 bus1=sb10_p13uhs0_1247_bus_10_4.1.2.3 bus2=sb10_p13uhs0_1247_bus_10_5.1.2.3 switch=y enabled=n phases=3 Linecode=BREAKER_13KV_3

New Line.sb10_p13uhs0_1247_304 Units=km Length=0.001 bus1=sb10_p13uhs0_1247_bus_10_2.1.2.3 bus2=sb10_p13uhs0_1247_bus_10_4.1.2.3 switch=y enabled=y phases=3 Linecode=BREAKER_13KV_3

New Line.sb10_p13uhs0_1247_349 Units=km Length=0.001 bus1=sb10_p13uhs0_1247_node_10_5.1.2.3 bus2=p13uhs0_69.1.2.3 switch=y enabled=y phases=3 Linecode=DISCONNECT_SWITCH_69KV_3

New Line.sb10_p13uhs0_1247_302 Units=km Length=0.001 bus1=sb10_p13uhs0_1247_bus_10_1.1.2.3 bus2=sb10_p13uhs0_1247_bus_10_2.1.2.3 switch=y enabled=y phases=3 Linecode=DISCONNECT_SWITCH_13KV_3

